[TITLE]
;;Project Title/Notes

[OPTIONS]
;;Option             Value
FLOW_UNITS           CFS
INFILTRATION         HORTON
FLOW_ROUTING         DYNWAVE
LINK_OFFSETS         DEPTH
MIN_SLOPE            0
ALLOW_PONDING        NO
SKIP_STEADY_STATE    NO

START_DATE           10/08/2016
START_TIME           00:00:00
REPORT_START_DATE    10/08/2016
REPORT_START_TIME    00:00:00
END_DATE             10/09/2016
END_TIME             00:00:00
SWEEP_START          01/01
SWEEP_END            12/31
DRY_DAYS             0
REPORT_STEP          00:10:00
WET_STEP             00:01:00
DRY_STEP             24:00:00
ROUTING_STEP         0:00:01 

INERTIAL_DAMPING     PARTIAL
NORMAL_FLOW_LIMITED  FROUDE
FORCE_MAIN_EQUATION  H-W
VARIABLE_STEP        0.75
LENGTHENING_STEP     0
MIN_SURFAREA         12.557
MAX_TRIALS           8
HEAD_TOLERANCE       0.005
SYS_FLOW_TOL         5
LAT_FLOW_TOL         5
MINIMUM_STEP         0.5
THREADS              8

[EVAPORATION]
;;Data Source    Parameters
;;-------------- ----------------
CONSTANT         0.0
DRY_ONLY         NO

[RAINGAGES]
;;Name           Format    Interval SCF      Source    
;;-------------- --------- ------ ------ ----------
SCS~Type~II,~10-yr CUMULATIVE 0.10000  1.0      TIMESERIES 2yr12hr         

[SUBCATCHMENTS]
;;Name           Rain Gage        Outlet           Area     %Imperv  Width    %Slope   CurbLen  SnowPack        
;;-------------- ---------------- ---------------- -------- -------- -------- -------- -------- ----------------
E13155#1         SCS~Type~II,~10-yr E13155           1.904    40       1        100      0                        
E133394#1        SCS~Type~II,~10-yr E133394          1.658    42       1        100      0                        
E133401#1        SCS~Type~II,~10-yr E133401          2.307    76       1        100      0                        
E133464#1        SCS~Type~II,~10-yr E133464          2.293    75       1        100      0                        
E133473#1        SCS~Type~II,~10-yr E133473          1.3      90       1        100      0                        
E133474#1        SCS~Type~II,~10-yr E133474          1.709    79       1        100      0                        
E133478#1        SCS~Type~II,~10-yr E133478          1.19     80       1        100      0                        
E133481#1        SCS~Type~II,~10-yr E133481          4.443    55       1        100      0                        
E133483#1        SCS~Type~II,~10-yr E133483          3.684    77       1        100      0                        
E134007#1        SCS~Type~II,~10-yr E134007          1.548    35       1        100      0                        
E134010#1        SCS~Type~II,~10-yr E134010          0.518    41       1        100      0                        
E134011#1        SCS~Type~II,~10-yr E134011          3.173    49       1        100      0                        
E134203#1        SCS~Type~II,~10-yr E134203          2.579    85       1        100      0                        
E134212#1        SCS~Type~II,~10-yr E134212          1.208    69       1        100      0                        
E134213#1        SCS~Type~II,~10-yr E134213          0.399    93       1        100      0                        
E134217#1        SCS~Type~II,~10-yr E134217          1.54     77       1        100      0                        
E134219#1        SCS~Type~II,~10-yr E134219          2.391    71       1        100      0                        
E134222#1        SCS~Type~II,~10-yr E134222          2.434    16       1        100      0                        
E134224.2#1      SCS~Type~II,~10-yr E134224.2        2.257    14       1        100      0                        
E134250#1        SCS~Type~II,~10-yr E134250          4.139    46       1        100      0                        
E134255#1        SCS~Type~II,~10-yr E134255          2.707    44       1        100      0                        
E134257#1        SCS~Type~II,~10-yr E134257          2.495    42       1        100      0                        
E134262#1        SCS~Type~II,~10-yr E134262          0.221    20       1        100      0                        
E134263#1        SCS~Type~II,~10-yr E134263          3.037    17       1        100      0                        
E134266#1        SCS~Type~II,~10-yr E134266          0.802    9        1        100      0                        
E134267#1        SCS~Type~II,~10-yr E134267          1.302    24       1        100      0                        
E134278#1        SCS~Type~II,~10-yr E134278          1.971    53       1        100      0                        
E134288#1        SCS~Type~II,~10-yr E134288          1.315    49       1        100      0                        
E143277#1        SCS~Type~II,~10-yr E143277          0.331    40       1        100      0                        
E143278#1        SCS~Type~II,~10-yr E143278          1.182    54       1        100      0                        
E143280#1        SCS~Type~II,~10-yr E143280          2.742    73       1        100      0                        
E143282#1        SCS~Type~II,~10-yr E143282          0.35     57       1        100      0                        
E143284#1        SCS~Type~II,~10-yr E143284          1.084    43       1        100      0                        
E143287#1        SCS~Type~II,~10-yr E143287          0.275    50       1        100      0                        
E143288#1        SCS~Type~II,~10-yr E143288          2.352    38       1        100      0                        
E143289#1        SCS~Type~II,~10-yr E143289          1.171    44       1        100      0                        
E143300#1        SCS~Type~II,~10-yr E143300          2.645    42       1        100      0                        
E143304#1        SCS~Type~II,~10-yr E143304          0.695    44       1        100      0                        
E143314#1        SCS~Type~II,~10-yr E143314          2.33     48       1        100      0                        
E143315#1        SCS~Type~II,~10-yr E143315          3.353    43       1        100      0                        
E143319#1        SCS~Type~II,~10-yr E143319          1.452    57       1        100      0                        
E143321#1        SCS~Type~II,~10-yr E143321          2.006    53       1        100      0                        
E143327#1        SCS~Type~II,~10-yr E143327          1.735    77       1        100      0                        
E143329#1        SCS~Type~II,~10-yr E143329          2.345    84       1        100      0                        
E143335#1        SCS~Type~II,~10-yr E143335          0.896    82       1        100      0                        
E143339#1        SCS~Type~II,~10-yr E143339          2.27     71       1        100      0                        
E143340#1        SCS~Type~II,~10-yr E143340          0.271    84       1        100      0                        
E143352#1        SCS~Type~II,~10-yr E143352          0.642    92       1        100      0                        
E143356#1        SCS~Type~II,~10-yr E143356          1.43     86       1        100      0                        
E143358#1        SCS~Type~II,~10-yr E143358          1.319    79       1        100      0                        
E143361#1        SCS~Type~II,~10-yr E143361          1.496    50       1        100      0                        
E143366#1        SCS~Type~II,~10-yr E143366          0.692    14       1        100      0                        
E143369#1        SCS~Type~II,~10-yr E143369          2.058    43       1        100      0                        
E143373#1        SCS~Type~II,~10-yr E143373          0.541    90       1        100      0                        
E143393#1        SCS~Type~II,~10-yr E143393          10.886   18       1        100      0                        
E144050#1        SCS~Type~II,~10-yr E144050          0.626    63       1        100      0                        
E144272#1        SCS~Type~II,~10-yr E144272          4.225    81       1        100      0                        
E145010#1        SCS~Type~II,~10-yr E145010          0.167    65       1        100      0                        
E145011#1        SCS~Type~II,~10-yr E145011          0.203    69       1        100      0                        
E146002#1        SCS~Type~II,~10-yr E146002          0.288    68       1        100      0                        
E146003#1        SCS~Type~II,~10-yr E146003          1.351    58       1        100      0                        
F13250#1         SCS~Type~II,~10-yr F13250           0.263    69       1        100      0                        
F13251#1         SCS~Type~II,~10-yr F13251           0.585    65       1        100      0                        
F13252#1         SCS~Type~II,~10-yr F13252           1.226    49       1        100      0                        
F13255#1         SCS~Type~II,~10-yr F13255           5.517    43       1        100      0                        
F13259#1         SCS~Type~II,~10-yr F13259           0.453    72       1        100      0                        
F13260#1         SCS~Type~II,~10-yr F13260           1.615    66       1        100      0                        
F13264#1         SCS~Type~II,~10-yr F13264           1.429    46       1        100      0                        
F13269#1         SCS~Type~II,~10-yr F13269           1.805    48       1        100      0                        
F13277#1         SCS~Type~II,~10-yr F13277           0.532    66       1        100      0                        
F13281#1         SCS~Type~II,~10-yr F13281           2.807    67       1        100      0                        
F13289#1         SCS~Type~II,~10-yr F13289           2.626    89       1        100      0                        
F13290#1         SCS~Type~II,~10-yr F13290           0.141    68       1        100      0                        
F13291#1         SCS~Type~II,~10-yr F13291           1.073    75       1        100      0                        
F13292#1         SCS~Type~II,~10-yr F13292           0.997    90       1        100      0                        
F13295#1         SCS~Type~II,~10-yr F13295           0.37     88       1        100      0                        
F133438#1        SCS~Type~II,~10-yr F133438          6.963    71       1        100      0                        
F133448#1        SCS~Type~II,~10-yr F133448          0.577    79       1        100      0                        
F133451#1        SCS~Type~II,~10-yr F133451          1.844    67       1        100      0                        
F133452#1        SCS~Type~II,~10-yr F133452          7.831    73       1        100      0                        
F133459#1        SCS~Type~II,~10-yr F133459          2.763    84       1        100      0                        
F133462#1        SCS~Type~II,~10-yr F133462          2.337    92       1        100      0                        
F133463#1        SCS~Type~II,~10-yr F133463          3.353    80       1        100      0                        
F133464#1        SCS~Type~II,~10-yr F133464          5.173    80       1        100      0                        
F133469#1        SCS~Type~II,~10-yr F133469          3.757    78       1        100      0                        
F134101#1        SCS~Type~II,~10-yr F134101          0.98     84       1        100      0                        
F134104#1        SCS~Type~II,~10-yr F134104          2.611    70       1        100      0                        
F134118#1        SCS~Type~II,~10-yr F134118          7.381    29       1        100      0                        
F134126#1        SCS~Type~II,~10-yr F134126          4.996    53       1        100      0                        
F134147#1        SCS~Type~II,~10-yr F134147          0.889    35       1        100      0                        
F134200#1        SCS~Type~II,~10-yr F134200          0.732    92       1        100      0                        
F134230#1        SCS~Type~II,~10-yr F134230          4.025    83       1        100      0                        
F134231#1        SCS~Type~II,~10-yr F134231          3.645    83       1        100      0                        
F135999#1        SCS~Type~II,~10-yr F135999          4.176    8        1        100      0                        
F139004#1        SCS~Type~II,~10-yr F139004          1.943    49       1        100      0                        
F139015#1        SCS~Type~II,~10-yr F139015          2.013    21       1        100      0                        
F139025#1        SCS~Type~II,~10-yr F139025          0.367    53       1        100      0                        
F139026#1        SCS~Type~II,~10-yr F139026          0.632    73       1        100      0                        
F139028#1        SCS~Type~II,~10-yr F139028          0.417    84       1        100      0                        
F139029#1        SCS~Type~II,~10-yr F139029          0.819    65       1        100      0                        
F139031#1        SCS~Type~II,~10-yr F139031          1.489    76       1        100      0                        
F143510#1        SCS~Type~II,~10-yr F143510          2.987    67       1        100      0                        
F143512#1        SCS~Type~II,~10-yr F143512          1.539    46       1        100      0                        
F143513#1        SCS~Type~II,~10-yr F143513          7.526    15       1        100      0                        
F143520#1        SCS~Type~II,~10-yr F143520          0.827    17       1        100      0                        
F143529#1        SCS~Type~II,~10-yr F143529          3.17     10       1        100      0                        
F143537#1        SCS~Type~II,~10-yr F143537          0.373    21       1        100      0                        
F143539#1        SCS~Type~II,~10-yr F143539          0.336    14       1        100      0                        
F143543#1        SCS~Type~II,~10-yr F143543          1.257    16       1        100      0                        
F143545#1        SCS~Type~II,~10-yr F143545          2.641    5        1        100      0                        
F143548#1        SCS~Type~II,~10-yr F143548          0.569    22       1        100      0                        
F143560#1        SCS~Type~II,~10-yr F143560          5.724    7        1        100      0                        
F143575#1        SCS~Type~II,~10-yr F143575          0.822    4        1        100      0                        
F143587#1        SCS~Type~II,~10-yr F143587          1.181    10       1        100      0                        
F143590#1        SCS~Type~II,~10-yr F143590          1.225    13       1        100      0                        
F143603#1        SCS~Type~II,~10-yr F143603          0.814    8        1        100      0                        
F143609#1        SCS~Type~II,~10-yr F143609          4.973    3        1        100      0                        
F143611.01#1     SCS~Type~II,~10-yr F143611.01       3.35     47       1        100      0                        
F143613#1        SCS~Type~II,~10-yr F143613          1.821    44       1        100      0                        
F143613.1#1      SCS~Type~II,~10-yr F143613.1        1.821    44       1        100      0                        
F143617#1        SCS~Type~II,~10-yr F143617          2.349    14       1        100      0                        
F143622#1        SCS~Type~II,~10-yr F143622          1.143    10       1        100      0                        
F143636#1        SCS~Type~II,~10-yr F143636          5.945    10       1        100      0                        
F143637#1        SCS~Type~II,~10-yr F143637          0.411    20       1        100      0                        
F143640#1        SCS~Type~II,~10-yr F143640          1.32     60       1        100      0                        
F143643#1        SCS~Type~II,~10-yr F143643          1.795    14       1        100      0                        
F143648#1        SCS~Type~II,~10-yr F143648          2.352    41       1        100      0                        
F143648.1#1      SCS~Type~II,~10-yr F143648.1        1.744    39       1        100      0                        
F143649#1        SCS~Type~II,~10-yr F143649          0.355    61       1        100      0                        
F143651#1        SCS~Type~II,~10-yr F143651          0.268    72       1        100      0                        
F143661#1        SCS~Type~II,~10-yr F143661          3.371    50       1        100      0                        
F143662#1        SCS~Type~II,~10-yr F143662          1.681    54       1        100      0                        
F143665#1        SCS~Type~II,~10-yr F143665          3.301    33       1        100      0                        
F143671#1        SCS~Type~II,~10-yr F143671          0.916    17       1        100      0                        
F143674#1        SCS~Type~II,~10-yr F143674          4.538    17       1        100      0                        
F143676#1        SCS~Type~II,~10-yr F143676          1.1      26       1        100      0                        
F143682.01#1     SCS~Type~II,~10-yr F143682.01       5.774    21       1        100      0                        
F143692#1        SCS~Type~II,~10-yr F143692          2.083    64       1        100      0                        
F143693#1        SCS~Type~II,~10-yr F143693          4.76     56       1        100      0                        
F143701#1        SCS~Type~II,~10-yr F143701          0.393    65       1        100      0                        
F143702#1        SCS~Type~II,~10-yr F143702          1.065    51       1        100      0                        
F143705#1        SCS~Type~II,~10-yr F143705          0.343    55       1        100      0                        
F143707#1        SCS~Type~II,~10-yr F143707          0.592    59       1        100      0                        
F143708#1        SCS~Type~II,~10-yr F143708          2.682    34       1        100      0                        
F144001#1        SCS~Type~II,~10-yr F144001          4.541    52       1        100      0                        
F145017#1        SCS~Type~II,~10-yr F145017          2.17     70       1        100      0                        
F14502#1         SCS~Type~II,~10-yr F14502           0.452    38       1        100      0                        
F14503#1         SCS~Type~II,~10-yr F14503           0.52     27       1        100      0                        
F14504#1         SCS~Type~II,~10-yr F14504           0.691    21       1        100      0                        
F146005#1        SCS~Type~II,~10-yr F146005          1.271    15       1        100      0                        
F146006#1        SCS~Type~II,~10-yr F146006          0.761    7        1        100      0                        
F14601#1         SCS~Type~II,~10-yr F14601           0.146    11       1        100      0                        
F14602#1         SCS~Type~II,~10-yr F14602           0.475    5        1        100      0                        
F14604#1         SCS~Type~II,~10-yr F14604           1.065    16       1        100      0                        
F147005#1        SCS~Type~II,~10-yr F147005          4.569    52       1        100      0                        
F147020#1        SCS~Type~II,~10-yr F147020          2.045    65       1        100      0                        
F147143#1        SCS~Type~II,~10-yr F147143          0.784    62       1        100      0                        
F147147#1        SCS~Type~II,~10-yr F147147          0.221    52       1        100      0                        
F147148#1        SCS~Type~II,~10-yr F147148          0.052    49       1        100      0                        
F147148.1#1      SCS~Type~II,~10-yr F147148.1        0.792    66       1        100      0                        
F149001.2#1      SCS~Type~II,~10-yr F149001.2        3.508    36       1        100      0                        
F149011#1        SCS~Type~II,~10-yr F149011          1.08     69       1        100      0                        
F149012#1        SCS~Type~II,~10-yr F149012          0.81     29       1        100      0                        
F149015#1        SCS~Type~II,~10-yr F149015          0.584    39       1        100      0                        
F149025#1        SCS~Type~II,~10-yr F149025          0.064    39       1        100      0                        

[SUBAREAS]
;;Subcatchment   N-Imperv   N-Perv     S-Imperv   S-Perv     PctZero    RouteTo    PctRouted 
;;-------------- ---------- ---------- ---------- ---------- ---------- ---------- ----------
E13155#1         0.01       0.1        0.05       0.05       25         OUTLET    
E133394#1        0.01       0.1        0.05       0.05       25         OUTLET    
E133401#1        0.01       0.1        0.05       0.05       25         OUTLET    
E133464#1        0.01       0.1        0.05       0.05       25         OUTLET    
E133473#1        0.01       0.1        0.05       0.05       25         OUTLET    
E133474#1        0.01       0.1        0.05       0.05       25         OUTLET    
E133478#1        0.01       0.1        0.05       0.05       25         OUTLET    
E133481#1        0.01       0.1        0.05       0.05       25         OUTLET    
E133483#1        0.01       0.1        0.05       0.05       25         OUTLET    
E134007#1        0.01       0.1        0.05       0.05       25         OUTLET    
E134010#1        0.01       0.1        0.05       0.05       25         OUTLET    
E134011#1        0.01       0.1        0.05       0.05       25         OUTLET    
E134203#1        0.01       0.1        0.05       0.05       25         OUTLET    
E134212#1        0.01       0.1        0.05       0.05       25         OUTLET    
E134213#1        0.01       0.1        0.05       0.05       25         OUTLET    
E134217#1        0.01       0.1        0.05       0.05       25         OUTLET    
E134219#1        0.01       0.1        0.05       0.05       25         OUTLET    
E134222#1        0.01       0.1        0.05       0.05       25         OUTLET    
E134224.2#1      0.01       0.1        0.05       0.05       25         OUTLET    
E134250#1        0.01       0.1        0.05       0.05       25         OUTLET    
E134255#1        0.01       0.1        0.05       0.05       25         OUTLET    
E134257#1        0.01       0.1        0.05       0.05       25         OUTLET    
E134262#1        0.01       0.1        0.05       0.05       25         OUTLET    
E134263#1        0.01       0.1        0.05       0.05       25         OUTLET    
E134266#1        0.01       0.1        0.05       0.05       25         OUTLET    
E134267#1        0.01       0.1        0.05       0.05       25         OUTLET    
E134278#1        0.01       0.1        0.05       0.05       25         OUTLET    
E134288#1        0.01       0.1        0.05       0.05       25         OUTLET    
E143277#1        0.01       0.1        0.05       0.05       25         OUTLET    
E143278#1        0.01       0.1        0.05       0.05       25         OUTLET    
E143280#1        0.01       0.1        0.05       0.05       25         OUTLET    
E143282#1        0.01       0.1        0.05       0.05       25         OUTLET    
E143284#1        0.01       0.1        0.05       0.05       25         OUTLET    
E143287#1        0.01       0.1        0.05       0.05       25         OUTLET    
E143288#1        0.01       0.1        0.05       0.05       25         OUTLET    
E143289#1        0.01       0.1        0.05       0.05       25         OUTLET    
E143300#1        0.01       0.1        0.05       0.05       25         OUTLET    
E143304#1        0.01       0.1        0.05       0.05       25         OUTLET    
E143314#1        0.01       0.1        0.05       0.05       25         OUTLET    
E143315#1        0.01       0.1        0.05       0.05       25         OUTLET    
E143319#1        0.01       0.1        0.05       0.05       25         OUTLET    
E143321#1        0.01       0.1        0.05       0.05       25         OUTLET    
E143327#1        0.01       0.1        0.05       0.05       25         OUTLET    
E143329#1        0.01       0.1        0.05       0.05       25         OUTLET    
E143335#1        0.01       0.1        0.05       0.05       25         OUTLET    
E143339#1        0.01       0.1        0.05       0.05       25         OUTLET    
E143340#1        0.01       0.1        0.05       0.05       25         OUTLET    
E143352#1        0.01       0.1        0.05       0.05       25         OUTLET    
E143356#1        0.01       0.1        0.05       0.05       25         OUTLET    
E143358#1        0.01       0.1        0.05       0.05       25         OUTLET    
E143361#1        0.01       0.1        0.05       0.05       25         OUTLET    
E143366#1        0.01       0.1        0.05       0.05       25         OUTLET    
E143369#1        0.01       0.1        0.05       0.05       25         OUTLET    
E143373#1        0.01       0.1        0.05       0.05       25         OUTLET    
E143393#1        0.01       0.1        0.05       0.05       25         OUTLET    
E144050#1        0.01       0.1        0.05       0.05       25         OUTLET    
E144272#1        0.01       0.1        0.05       0.05       25         OUTLET    
E145010#1        0.01       0.1        0.05       0.05       25         OUTLET    
E145011#1        0.01       0.1        0.05       0.05       25         OUTLET    
E146002#1        0.01       0.1        0.05       0.05       25         OUTLET    
E146003#1        0.01       0.1        0.05       0.05       25         OUTLET    
F13250#1         0.01       0.1        0.05       0.05       25         OUTLET    
F13251#1         0.01       0.1        0.05       0.05       25         OUTLET    
F13252#1         0.01       0.1        0.05       0.05       25         OUTLET    
F13255#1         0.01       0.1        0.05       0.05       25         OUTLET    
F13259#1         0.01       0.1        0.05       0.05       25         OUTLET    
F13260#1         0.01       0.1        0.05       0.05       25         OUTLET    
F13264#1         0.01       0.1        0.05       0.05       25         OUTLET    
F13269#1         0.01       0.1        0.05       0.05       25         OUTLET    
F13277#1         0.01       0.1        0.05       0.05       25         OUTLET    
F13281#1         0.01       0.1        0.05       0.05       25         OUTLET    
F13289#1         0.01       0.1        0.05       0.05       25         OUTLET    
F13290#1         0.01       0.1        0.05       0.05       25         OUTLET    
F13291#1         0.01       0.1        0.05       0.05       25         OUTLET    
F13292#1         0.01       0.1        0.05       0.05       25         OUTLET    
F13295#1         0.01       0.1        0.05       0.05       25         OUTLET    
F133438#1        0.01       0.1        0.05       0.05       25         OUTLET    
F133448#1        0.01       0.1        0.05       0.05       25         OUTLET    
F133451#1        0.01       0.1        0.05       0.05       25         OUTLET    
F133452#1        0.01       0.1        0.05       0.05       25         OUTLET    
F133459#1        0.01       0.1        0.05       0.05       25         OUTLET    
F133462#1        0.01       0.1        0.05       0.05       25         OUTLET    
F133463#1        0.01       0.1        0.05       0.05       25         OUTLET    
F133464#1        0.01       0.1        0.05       0.05       25         OUTLET    
F133469#1        0.01       0.1        0.05       0.05       25         OUTLET    
F134101#1        0.01       0.1        0.05       0.05       25         OUTLET    
F134104#1        0.01       0.1        0.05       0.05       25         OUTLET    
F134118#1        0.01       0.1        0.05       0.05       25         OUTLET    
F134126#1        0.01       0.1        0.05       0.05       25         OUTLET    
F134147#1        0.01       0.1        0.05       0.05       25         OUTLET    
F134200#1        0.01       0.1        0.05       0.05       25         OUTLET    
F134230#1        0.01       0.1        0.05       0.05       25         OUTLET    
F134231#1        0.01       0.1        0.05       0.05       25         OUTLET    
F135999#1        0.01       0.1        0.05       0.05       25         OUTLET    
F139004#1        0.01       0.1        0.05       0.05       25         OUTLET    
F139015#1        0.01       0.1        0.05       0.05       25         OUTLET    
F139025#1        0.01       0.1        0.05       0.05       25         OUTLET    
F139026#1        0.01       0.1        0.05       0.05       25         OUTLET    
F139028#1        0.01       0.1        0.05       0.05       25         OUTLET    
F139029#1        0.01       0.1        0.05       0.05       25         OUTLET    
F139031#1        0.01       0.1        0.05       0.05       25         OUTLET    
F143510#1        0.01       0.1        0.05       0.05       25         OUTLET    
F143512#1        0.01       0.1        0.05       0.05       25         OUTLET    
F143513#1        0.01       0.1        0.05       0.05       25         OUTLET    
F143520#1        0.01       0.1        0.05       0.05       25         OUTLET    
F143529#1        0.01       0.1        0.05       0.05       25         OUTLET    
F143537#1        0.01       0.1        0.05       0.05       25         OUTLET    
F143539#1        0.01       0.1        0.05       0.05       25         OUTLET    
F143543#1        0.01       0.1        0.05       0.05       25         OUTLET    
F143545#1        0.01       0.1        0.05       0.05       25         OUTLET    
F143548#1        0.01       0.1        0.05       0.05       25         OUTLET    
F143560#1        0.01       0.1        0.05       0.05       25         OUTLET    